
=================
  PFLOTRAN v3.0
=================


 ! ************************************************************************** !

 Initial Basis

 Primary Species:
  Acetate-   (redox species)
    Charge:  -1.00
    Molar Mass:   59.0446 [g/mol]
    Debye-Huckel a0:    4.5000 [Angstrom]
    Equilibrium Aqueous Reaction: 
        -1.0000  Acetate-                                                                                                                        
        -1.0000  H+                                                                                                                              
         1.0000  Acetic_acid(aq)                                                                                                                 
      logK:     4.7812     4.7572     4.8080     4.9438     5.1953     5.5241     5.9420     6.5094

  H+
    Charge:   1.00
    Molar Mass:    1.0079 [g/mol]
    Debye-Huckel a0:    9.0000 [Angstrom]

  HCO3-
    Charge:  -1.00
    Molar Mass:   61.0171 [g/mol]
    Debye-Huckel a0:    4.0000 [Angstrom]

  Ca++
    Charge:   2.00
    Molar Mass:   40.0780 [g/mol]
    Debye-Huckel a0:    6.0000 [Angstrom]

  O2(aq)   (redox species)
    Charge:   0.00
    Molar Mass:   31.9988 [g/mol]
    Debye-Huckel a0:    3.0000 [Angstrom]

  N2(aq)   (redox species)
    Charge:   0.00
    Molar Mass:   28.0135 [g/mol]
    Debye-Huckel a0:    3.0000 [Angstrom]
    Equilibrium Aqueous Reaction: 
        -1.0000  N2(aq)                                                                                                                          
        -3.0000  H2O                                                                                                                             
         1.5000  O2(g)                                                                                                                           
         2.0000  NH3(aq)                                                                                                                         
      logK:  -123.4712  -112.1135   -99.2148   -87.5714   -76.2582   -67.4642   -60.4620   -54.7940

  NO3-   (redox species)
    Charge:  -1.00
    Molar Mass:   62.0049 [g/mol]
    Debye-Huckel a0:    3.0000 [Angstrom]
    Equilibrium Aqueous Reaction: 
        -1.0000  NO3-                                                                                                                            
        -1.0000  H+                                                                                                                              
        -1.0000  H2O                                                                                                                             
         1.0000  NH3(aq)                                                                                                                         
         2.0000  O2(g)                                                                                                                           
      logK:   -62.8645   -56.3035   -48.6988   -41.6846   -34.6926   -29.0797   -24.4213   -20.3964

  NH4+
    Charge:   1.00
    Molar Mass:   18.0385 [g/mol]
    Debye-Huckel a0:    2.5000 [Angstrom]
    Equilibrium Aqueous Reaction: 
        -1.0000  NH4+                                                                                                                            
         1.0000  H+                                                                                                                              
         1.0000  NH3(aq)                                                                                                                         
      logK:   -10.0691    -9.2410    -8.2847    -7.4010    -6.5156    -5.7992    -5.1995    -4.6767

  NO2-   (redox species)
    Charge:  -1.00
    Molar Mass:   46.0055 [g/mol]
    Debye-Huckel a0:    3.0000 [Angstrom]
    Equilibrium Aqueous Reaction: 
        -1.0000  NO2-                                                                                                                            
        -1.0000  H+                                                                                                                              
        -1.0000  H2O                                                                                                                             
         1.0000  NH3(aq)                                                                                                                         
         1.5000  O2(g)                                                                                                                           
      logK:   -47.4380   -42.5178   -36.7888   -31.4804   -26.1599   -21.8585   -18.2539   -15.0902

  CO2(aq)   (redox species)
    Charge:   0.00
    Molar Mass:   44.0098 [g/mol]
    Debye-Huckel a0:    3.0000 [Angstrom]
    Equilibrium Aqueous Reaction: 
        -1.0000  CO2(aq)                                                                                                                         
        -1.0000  H2O                                                                                                                             
         1.0000  H+                                                                                                                              
         1.0000  HCO3-                                                                                                                           
      logK:    -6.5804    -6.3447    -6.2684    -6.3882    -6.7235    -7.1969    -7.7868    -8.5280

  Cu++
    Charge:   2.00
    Molar Mass:   63.5460 [g/mol]
    Debye-Huckel a0:    6.0000 [Angstrom]

  Mg++
    Charge:   2.00
    Molar Mass:   24.3050 [g/mol]
    Debye-Huckel a0:    8.0000 [Angstrom]

  Fe++
    Charge:   2.00
    Molar Mass:   55.8470 [g/mol]
    Debye-Huckel a0:    6.0000 [Angstrom]

  Fe+++   (redox species)
    Charge:   3.00
    Molar Mass:   55.8470 [g/mol]
    Debye-Huckel a0:    9.0000 [Angstrom]
    Equilibrium Aqueous Reaction: 
        -1.0000  Fe+++                                                                                                                           
        -0.5000  H2O                                                                                                                             
         0.2500  O2(g)                                                                                                                           
         1.0000  Fe++                                                                                                                            
         1.0000  H+                                                                                                                              
      logK:    -9.3541    -7.7654    -5.8970    -4.1507    -2.3795    -0.9223     0.3233     1.4215

  Cl-
    Charge:  -1.00
    Molar Mass:   35.4527 [g/mol]
    Debye-Huckel a0:    3.0000 [Angstrom]

  Co++
    Charge:   2.00
    Molar Mass:   58.9332 [g/mol]
    Debye-Huckel a0:    6.0000 [Angstrom]

  Mn++
    Charge:   2.00
    Molar Mass:   54.9380 [g/mol]
    Debye-Huckel a0:    6.0000 [Angstrom]

  SO4--
    Charge:  -2.00
    Molar Mass:   96.0636 [g/mol]
    Debye-Huckel a0:    4.0000 [Angstrom]

  HPO4--
    Charge:  -2.00
    Molar Mass:   95.9793 [g/mol]
    Debye-Huckel a0:    4.0000 [Angstrom]

  Zn++
    Charge:   2.00
    Molar Mass:   65.3900 [g/mol]
    Debye-Huckel a0:    6.0000 [Angstrom]

  K+
    Charge:   1.00
    Molar Mass:   39.0983 [g/mol]
    Debye-Huckel a0:    3.0000 [Angstrom]

  LLeucine(aq)
    Charge:   0.00
    Molar Mass:  131.1729 [g/mol]
    Debye-Huckel a0:    0.0000 [Angstrom]

  LIsoleucine(aq)
    Charge:   0.00
    Molar Mass:  131.1729 [g/mol]
    Debye-Huckel a0:    0.0000 [Angstrom]

  BET(aq)
    Charge:   0.00
    Molar Mass:  117.1463 [g/mol]
    Debye-Huckel a0:    0.0000 [Angstrom]

  LValine(aq)
    Charge:   0.00
    Molar Mass:  117.1463 [g/mol]
    Debye-Huckel a0:    0.0000 [Angstrom]

  SAdenosyl4methylthio2oxobutanoate(aq)
    Charge:   0.00
    Molar Mass:  397.4063 [g/mol]
    Debye-Huckel a0:    0.0000 [Angstrom]

  CH32NH+
    Charge:   1.00
    Molar Mass:   46.0916 [g/mol]
    Debye-Huckel a0:    6.0000 [Angstrom]

  DGlucose(aq)
    Charge:   0.00
    Molar Mass:  180.1559 [g/mol]
    Debye-Huckel a0:    0.0000 [Angstrom]

  LGlutamate-
    Charge:  -1.00
    Molar Mass:  146.1213 [g/mol]
    Debye-Huckel a0:    6.0000 [Angstrom]

  LAlanine(aq)
    Charge:   0.00
    Molar Mass:   89.0932 [g/mol]
    Debye-Huckel a0:    0.0000 [Angstrom]

  LAspartate-
    Charge:  -1.00
    Molar Mass:  132.0947 [g/mol]
    Debye-Huckel a0:    6.0000 [Angstrom]

  LLysine+
    Charge:   1.00
    Molar Mass:  147.1955 [g/mol]
    Debye-Huckel a0:    6.0000 [Angstrom]

  LMethionine(aq)
    Charge:   0.00
    Molar Mass:  149.2113 [g/mol]
    Debye-Huckel a0:    0.0000 [Angstrom]

  Niacin-
    Charge:  -1.00
    Molar Mass:  122.1015 [g/mol]
    Debye-Huckel a0:    6.0000 [Angstrom]

  LAsparagine(aq)
    Charge:   0.00
    Molar Mass:  132.1179 [g/mol]
    Debye-Huckel a0:    0.0000 [Angstrom]

  Succinate--
    Charge:  -2.00
    Molar Mass:  116.0722 [g/mol]
    Debye-Huckel a0:    6.0000 [Angstrom]

  Glycine(aq)   (redox species)
    Charge:   0.00
    Molar Mass:   75.0672 [g/mol]
    Debye-Huckel a0:    3.0000 [Angstrom]
    Equilibrium Aqueous Reaction: 
        -1.0000  Glycine(aq)                                                                                                                     
        -1.0000  H2O                                                                                                                             
         0.5000  O2(g)                                                                                                                           
         1.0000  Acetic_acid(aq)                                                                                                                 
         1.0000  NH3(aq)                                                                                                                         
      logK:   -36.0711   -32.3716   -28.0435   -24.0019   -19.9217   -16.6155   -13.8739   -11.5611

  LThreonine(aq)
    Charge:   0.00
    Molar Mass:  119.1192 [g/mol]
    Debye-Huckel a0:    0.0000 [Angstrom]

  PPi---
    Charge:  -3.00
    Molar Mass:  174.9513 [g/mol]
    Debye-Huckel a0:    6.0000 [Angstrom]

  Methanol(aq)   (redox species)
    Charge:   0.00
    Molar Mass:   32.0422 [g/mol]
    Debye-Huckel a0:    3.0000 [Angstrom]
    Equilibrium Aqueous Reaction: 
        -1.0000  Methanol(aq)                                                                                                                    
         0.5000  Ethanol(aq)                                                                                                                     
         0.5000  H2O                                                                                                                             
      logK:     6.4884     5.8339     5.0877     4.4076     3.7375     3.2069     2.7745     2.4115


 Secondary Species:
  OH-
    Charge:  -1.00
    Molar Mass:   17.0073 [g/mol]
    Debye-Huckel a0:    3.5000 [Angstrom]
    Equilibrium Aqueous Reaction: 
        -1.0000  OH-                                                                                                                             
        -1.0000  H+                                                                                                                              
         1.0000  H2O                                                                                                                             
      logK:    14.9398    13.9951    13.0272    12.2551    11.6308    11.2836    11.1675    11.3002

  CO3--
    Charge:  -2.00
    Molar Mass:   60.0092 [g/mol]
    Debye-Huckel a0:    4.5000 [Angstrom]
    Equilibrium Aqueous Reaction: 
        -1.0000  CO3--                                                                                                                           
        -1.0000  H+                                                                                                                              
         1.0000  HCO3-                                                                                                                           
      logK:    10.6241    10.3288    10.1304    10.0836    10.2003    10.4648    10.8707    11.4638

  CaCO3(aq)
    Charge:   0.00
    Molar Mass:  100.0872 [g/mol]
    Debye-Huckel a0:    3.0000 [Angstrom]
    Equilibrium Aqueous Reaction: 
        -1.0000  CaCO3(aq)                                                                                                                       
        -1.0000  H+                                                                                                                              
         1.0000  Ca++                                                                                                                            
         1.0000  HCO3-                                                                                                                           
      logK:     7.5021     7.0017     6.4516     5.9636     5.4683     5.0185     4.5355     3.9118

  CaHCO3+
    Charge:   1.00
    Molar Mass:  101.0951 [g/mol]
    Debye-Huckel a0:    4.0000 [Angstrom]
    Equilibrium Aqueous Reaction: 
        -1.0000  CaHCO3+                                                                                                                         
         1.0000  Ca++                                                                                                                            
         1.0000  HCO3-                                                                                                                           
      logK:    -1.0951    -1.0467    -1.1592    -1.4181    -1.8587    -2.4000    -3.0514    -3.8725

  CaOH+
    Charge:   1.00
    Molar Mass:   57.0853 [g/mol]
    Debye-Huckel a0:    4.0000 [Angstrom]
    Equilibrium Aqueous Reaction: 
        -1.0000  CaOH+                                                                                                                           
        -1.0000  H+                                                                                                                              
         1.0000  Ca++                                                                                                                            
         1.0000  H2O                                                                                                                             
      logK:   500.0000    12.8500   500.0000   500.0000   500.0000   500.0000   500.0000   500.0000

  NH3(aq)
    Charge:   0.00
    Molar Mass:   17.0306 [g/mol]
    Debye-Huckel a0:    3.0000 [Angstrom]


 Gas Components:
  CO2(g)
    Molar Mass:   44.0098 [g/mol]
    Gas Reaction: 
        -1.0000  CO2(g)                                                                                                                          
        -1.0000  H2O                                                                                                                             
         1.0000  H+                                                                                                                              
         1.0000  HCO3-                                                                                                                           
      logK:    -7.6765    -7.8136    -8.0527    -8.3574    -8.7692    -9.2165    -9.7202   -10.3393

  O2(g)
    Molar Mass:   31.9988 [g/mol]
    Gas Reaction: 
        -1.0000  O2(g)                                                                                                                           
         1.0000  O2(aq)                                                                                                                          
      logK:    -2.6567    -2.8983    -3.0633    -3.1076    -3.0354    -2.8742    -2.6488    -2.3537

  N2(g)
    Molar Mass:   28.0135 [g/mol]
    Gas Reaction: 
        -1.0000  N2(g)                                                                                                                           
        -3.0000  H2O                                                                                                                             
         1.5000  O2(g)                                                                                                                           
         2.0000  NH3(aq)                                                                                                                         
      logK:  -126.4441  -115.2999  -102.5336   -90.9048   -79.4906   -70.5141   -63.2723   -57.3044


 Minerals: None

 Surface Complexation Reactions: None

   Surface Complexes: None

 Ion Exchange Reactions: None

 ! ************************************************************************** !


 ! ************************************************************************** !

 Final Basis

 Primary Species:
  Acetate-   (redox species)
    Charge:  -1.00
    Molar Mass:   59.0446 [g/mol]
    Debye-Huckel a0:    4.5000 [Angstrom]

  H+
    Charge:   1.00
    Molar Mass:    1.0079 [g/mol]
    Debye-Huckel a0:    9.0000 [Angstrom]

  HCO3-
    Charge:  -1.00
    Molar Mass:   61.0171 [g/mol]
    Debye-Huckel a0:    4.0000 [Angstrom]

  Ca++
    Charge:   2.00
    Molar Mass:   40.0780 [g/mol]
    Debye-Huckel a0:    6.0000 [Angstrom]

  O2(aq)   (redox species)
    Charge:   0.00
    Molar Mass:   31.9988 [g/mol]
    Debye-Huckel a0:    3.0000 [Angstrom]

  N2(aq)   (redox species)
    Charge:   0.00
    Molar Mass:   28.0135 [g/mol]
    Debye-Huckel a0:    3.0000 [Angstrom]

  NO3-   (redox species)
    Charge:  -1.00
    Molar Mass:   62.0049 [g/mol]
    Debye-Huckel a0:    3.0000 [Angstrom]

  NH4+
    Charge:   1.00
    Molar Mass:   18.0385 [g/mol]
    Debye-Huckel a0:    2.5000 [Angstrom]

  NO2-   (redox species)
    Charge:  -1.00
    Molar Mass:   46.0055 [g/mol]
    Debye-Huckel a0:    3.0000 [Angstrom]

  CO2(aq)   (redox species)
    Charge:   0.00
    Molar Mass:   44.0098 [g/mol]
    Debye-Huckel a0:    3.0000 [Angstrom]

  Cu++
    Charge:   2.00
    Molar Mass:   63.5460 [g/mol]
    Debye-Huckel a0:    6.0000 [Angstrom]

  Mg++
    Charge:   2.00
    Molar Mass:   24.3050 [g/mol]
    Debye-Huckel a0:    8.0000 [Angstrom]

  Fe++
    Charge:   2.00
    Molar Mass:   55.8470 [g/mol]
    Debye-Huckel a0:    6.0000 [Angstrom]

  Fe+++   (redox species)
    Charge:   3.00
    Molar Mass:   55.8470 [g/mol]
    Debye-Huckel a0:    9.0000 [Angstrom]

  Cl-
    Charge:  -1.00
    Molar Mass:   35.4527 [g/mol]
    Debye-Huckel a0:    3.0000 [Angstrom]

  Co++
    Charge:   2.00
    Molar Mass:   58.9332 [g/mol]
    Debye-Huckel a0:    6.0000 [Angstrom]

  Mn++
    Charge:   2.00
    Molar Mass:   54.9380 [g/mol]
    Debye-Huckel a0:    6.0000 [Angstrom]

  SO4--
    Charge:  -2.00
    Molar Mass:   96.0636 [g/mol]
    Debye-Huckel a0:    4.0000 [Angstrom]

  HPO4--
    Charge:  -2.00
    Molar Mass:   95.9793 [g/mol]
    Debye-Huckel a0:    4.0000 [Angstrom]

  Zn++
    Charge:   2.00
    Molar Mass:   65.3900 [g/mol]
    Debye-Huckel a0:    6.0000 [Angstrom]

  K+
    Charge:   1.00
    Molar Mass:   39.0983 [g/mol]
    Debye-Huckel a0:    3.0000 [Angstrom]

  LLeucine(aq)
    Charge:   0.00
    Molar Mass:  131.1729 [g/mol]
    Debye-Huckel a0:    0.0000 [Angstrom]

  LIsoleucine(aq)
    Charge:   0.00
    Molar Mass:  131.1729 [g/mol]
    Debye-Huckel a0:    0.0000 [Angstrom]

  BET(aq)
    Charge:   0.00
    Molar Mass:  117.1463 [g/mol]
    Debye-Huckel a0:    0.0000 [Angstrom]

  LValine(aq)
    Charge:   0.00
    Molar Mass:  117.1463 [g/mol]
    Debye-Huckel a0:    0.0000 [Angstrom]

  SAdenosyl4methylthio2oxobutanoate(aq)
    Charge:   0.00
    Molar Mass:  397.4063 [g/mol]
    Debye-Huckel a0:    0.0000 [Angstrom]

  CH32NH+
    Charge:   1.00
    Molar Mass:   46.0916 [g/mol]
    Debye-Huckel a0:    6.0000 [Angstrom]

  DGlucose(aq)
    Charge:   0.00
    Molar Mass:  180.1559 [g/mol]
    Debye-Huckel a0:    0.0000 [Angstrom]

  LGlutamate-
    Charge:  -1.00
    Molar Mass:  146.1213 [g/mol]
    Debye-Huckel a0:    6.0000 [Angstrom]

  LAlanine(aq)
    Charge:   0.00
    Molar Mass:   89.0932 [g/mol]
    Debye-Huckel a0:    0.0000 [Angstrom]

  LAspartate-
    Charge:  -1.00
    Molar Mass:  132.0947 [g/mol]
    Debye-Huckel a0:    6.0000 [Angstrom]

  LLysine+
    Charge:   1.00
    Molar Mass:  147.1955 [g/mol]
    Debye-Huckel a0:    6.0000 [Angstrom]

  LMethionine(aq)
    Charge:   0.00
    Molar Mass:  149.2113 [g/mol]
    Debye-Huckel a0:    0.0000 [Angstrom]

  Niacin-
    Charge:  -1.00
    Molar Mass:  122.1015 [g/mol]
    Debye-Huckel a0:    6.0000 [Angstrom]

  LAsparagine(aq)
    Charge:   0.00
    Molar Mass:  132.1179 [g/mol]
    Debye-Huckel a0:    0.0000 [Angstrom]

  Succinate--
    Charge:  -2.00
    Molar Mass:  116.0722 [g/mol]
    Debye-Huckel a0:    6.0000 [Angstrom]

  Glycine(aq)   (redox species)
    Charge:   0.00
    Molar Mass:   75.0672 [g/mol]
    Debye-Huckel a0:    3.0000 [Angstrom]

  LThreonine(aq)
    Charge:   0.00
    Molar Mass:  119.1192 [g/mol]
    Debye-Huckel a0:    0.0000 [Angstrom]

  PPi---
    Charge:  -3.00
    Molar Mass:  174.9513 [g/mol]
    Debye-Huckel a0:    6.0000 [Angstrom]

  Methanol(aq)   (redox species)
    Charge:   0.00
    Molar Mass:   32.0422 [g/mol]
    Debye-Huckel a0:    3.0000 [Angstrom]


 Secondary Species:
  OH-
    Charge:  -1.00
    Molar Mass:   17.0073 [g/mol]
    Debye-Huckel a0:    3.5000 [Angstrom]
    Equilibrium Aqueous Reaction: 
        -1.0000  OH-                                                                                                                             
         1.0000  H2O                                                                                                                             
        -1.0000  H+                                                                                                                              
      logK:    14.9398    13.9951    13.0272    12.2551    11.6308    11.2836    11.1675    11.3002

  CO3--
    Charge:  -2.00
    Molar Mass:   60.0092 [g/mol]
    Debye-Huckel a0:    4.5000 [Angstrom]
    Equilibrium Aqueous Reaction: 
        -1.0000  CO3--                                                                                                                           
        -1.0000  H+                                                                                                                              
         1.0000  HCO3-                                                                                                                           
      logK:    10.6241    10.3288    10.1304    10.0836    10.2003    10.4648    10.8707    11.4638

  CaCO3(aq)
    Charge:   0.00
    Molar Mass:  100.0872 [g/mol]
    Debye-Huckel a0:    3.0000 [Angstrom]
    Equilibrium Aqueous Reaction: 
        -1.0000  CaCO3(aq)                                                                                                                       
        -1.0000  H+                                                                                                                              
         1.0000  HCO3-                                                                                                                           
         1.0000  Ca++                                                                                                                            
      logK:     7.5021     7.0017     6.4516     5.9636     5.4683     5.0185     4.5355     3.9118

  CaHCO3+
    Charge:   1.00
    Molar Mass:  101.0951 [g/mol]
    Debye-Huckel a0:    4.0000 [Angstrom]
    Equilibrium Aqueous Reaction: 
        -1.0000  CaHCO3+                                                                                                                         
         1.0000  HCO3-                                                                                                                           
         1.0000  Ca++                                                                                                                            
      logK:    -1.0951    -1.0467    -1.1592    -1.4181    -1.8587    -2.4000    -3.0514    -3.8725

  CaOH+
    Charge:   1.00
    Molar Mass:   57.0853 [g/mol]
    Debye-Huckel a0:    4.0000 [Angstrom]
    Equilibrium Aqueous Reaction: 
        -1.0000  CaOH+                                                                                                                           
         1.0000  H2O                                                                                                                             
        -1.0000  H+                                                                                                                              
         1.0000  Ca++                                                                                                                            
      logK:   500.0000    12.8500   500.0000   500.0000   500.0000   500.0000   500.0000   500.0000

  NH3(aq)
    Charge:   0.00
    Molar Mass:   17.0306 [g/mol]
    Debye-Huckel a0:    3.0000 [Angstrom]
    Equilibrium Aqueous Reaction: 
        -1.0000  NH3(aq)                                                                                                                         
        -1.0000  H+                                                                                                                              
         1.0000  NH4+                                                                                                                            
      logK:    10.0691     9.2410     8.2847     7.4010     6.5156     5.7992     5.1995     4.6767


 Gas Components:
  CO2(g)
    Molar Mass:   44.0098 [g/mol]
    Gas Reaction: 
        -1.0000  CO2(g)                                                                                                                          
        -1.0000  H2O                                                                                                                             
         1.0000  H+                                                                                                                              
         1.0000  HCO3-                                                                                                                           
      logK:    -7.6765    -7.8136    -8.0527    -8.3574    -8.7692    -9.2165    -9.7202   -10.3393

  O2(g)
    Molar Mass:   31.9988 [g/mol]
    Gas Reaction: 
        -1.0000  O2(g)                                                                                                                           
         1.0000  O2(aq)                                                                                                                          
      logK:    -2.6567    -2.8983    -3.0633    -3.1076    -3.0354    -2.8742    -2.6488    -2.3537

  N2(g)
    Molar Mass:   28.0135 [g/mol]
    Gas Reaction: 
        -1.0000  N2(g)                                                                                                                           
        -3.0000  H2O                                                                                                                             
        -2.0000  H+                                                                                                                              
         1.5000  O2(aq)                                                                                                                          
         2.0000  NH4+                                                                                                                            
      logK:  -110.2910  -101.1653   -90.5592   -80.7642   -71.0125   -63.2270   -56.8465   -51.4815


 Minerals: None

 Surface Complexation Reactions: None

   Surface Complexes: None

 Ion Exchange Reactions: None

 ! ************************************************************************** !

--------------------------------------------------------------------------------

    40  Primary Species

              Acetate-              H+                    HCO3-               
              Ca++                  O2(aq)                N2(aq)              
              NO3-                  NH4+                  NO2-                
              CO2(aq)               Cu++                  Mg++                
              Fe++                  Fe+++                 Cl-                 
              Co++                  Mn++                  SO4--               
              HPO4--                Zn++                  K+                  
              LLeucine(aq)          LIsoleucine(aq)       BET(aq)             
              LValine(aq)           SAdenosyl4methylthio  CH32NH+             
              DGlucose(aq)          LGlutamate-           LAlanine(aq)        
              LAspartate-           LLysine+              LMethionine(aq)     
              Niacin-               LAsparagine(aq)       Succinate--         
              Glycine(aq)           LThreonine(aq)        PPi---              
              Methanol(aq)        

     6  Secondary Complex Species

              OH-                   CO3--                 CaCO3(aq)           
              CaHCO3+               CaOH+                 NH3(aq)             


     0  Active Gas Species



     3  Passive Gas Species

              CO2(g)                O2(g)                 N2(g)               


     0  Reference Minerals



     0  Kinetic Mineral Reactions



     0  Ion Exchange Reactions

     0  Ion Exchange Cations
--------------------------------------------------------------------------------
 Extent of Gridded Domain
  X: 0.0000000000000000 - 0.20000000000000001
  Y: 0.0000000000000000 - 0.10000000000000001
  Z: 0.0000000000000000 - 1.0000000000000000E-002


=+=+=+=+=+=+=+=+=+=+=+=+=+=+=+=+=+=+=+=+=+=+=+=+=+=+=+=+=+=+=+=+=+=+=+=+=+=+=+=+

  Initial Condition

--------------------------------------------------------------------------------
     Transport Condition:   initial
                  Region:   all
--------------------------------------------------------------------------------

  Transport Condition: initial

  Constraint: initial
  ----------------------------------------------------------------------------
        iterations:    13
                pH:   7.0000
                pe:  13.7220
                Eh:   0.8118
    ionic strength:   1.6931E-03 [mol/L]
    charge balance:  -1.1839E-04
          pressure:   1.0132E+05 [Pa]
       temperature:    25.00 [C]
       density H2O:   997.16 [kg/m^3]
 ln / activity H2O:   0.0000E+00  1.0000E+00    [---]
 mole fraction H2O:   9.9996E-01    [---]
 mass fraction H2O:   9.9989E-01    [---]
  ----------------------------------------------------------------------------

  primary                   free        total
  species                   molal       molal       act coef     constraint
  ----------------------------------------------------------------------------
  Acetate-                  1.3218E-04  1.3218E-04  9.5551E-01    total aq
  H+                        1.0440E-07 -9.3717E-07  9.5788E-01    pH
  HCO3-                     9.9731E-04  1.0028E-03  9.5523E-01    total aq
  Ca++                      4.9642E-04  5.0142E-04  8.3602E-01    total aq
  O2(aq)                    2.9069E-04  2.9069E-04  1.0000E+00    O2(g)
  N2(aq)                    1.0028E-08  1.0028E-08  1.0000E+00    total aq
  NO3-                      1.0028E-08  1.0028E-08  9.5466E-01    total aq
  NH4+                      8.9764E-07  9.0256E-07  9.5437E-01    total aq
  NO2-                      1.0028E-08  1.0028E-08  9.5466E-01    total aq
  CO2(aq)                   1.0028E-06  1.0028E-06  1.0000E+00    total aq
  Cu++                      1.0028E-06  1.0028E-06  8.3602E-01    total aq
  Mg++                      1.1031E-05  1.1031E-05  8.3969E-01    total aq
  Fe++                      1.6046E-06  1.6046E-06  8.3602E-01    total aq
  Fe+++                     1.0630E-05  1.0630E-05  6.7802E-01    total aq
  Cl-                       1.0028E-06  1.0028E-06  9.5466E-01    total aq
  Co++                      1.0028E-06  1.0028E-06  8.3602E-01    total aq
  Mn++                      9.0256E-07  9.0256E-07  8.3602E-01    total aq
  SO4--                     1.0028E-05  1.0028E-05  8.3218E-01    total aq
  HPO4--                    1.0028E-05  1.0028E-05  8.3218E-01    total aq
  Zn++                      1.0028E-06  1.0028E-06  8.3602E-01    total aq
  K+                        3.2091E-06  3.2091E-06  9.5466E-01    total aq
  LLeucine(aq)              8.0228E-07  8.0228E-07  1.0000E+00    total aq
  LIsoleucine(aq)           4.0114E-07  4.0114E-07  1.0000E+00    total aq
  BET(aq)                   3.0085E-07  3.0085E-07  1.0000E+00    total aq
  LValine(aq)               7.0199E-07  7.0199E-07  1.0000E+00    total aq
  SAdenosyl4methylthio2oxo  1.0028E-08  1.0028E-08  1.0000E+00    total aq
  CH32NH+                   1.0028E-07  1.0028E-07  9.5633E-01    total aq
  DGlucose(aq)              8.9253E-06  8.9253E-06  1.0000E+00    total aq
  LGlutamate-               1.0028E-07  1.0028E-07  9.5633E-01    total aq
  LAlanine(aq)              2.1060E-06  2.1060E-06  1.0000E+00    total aq
  LAspartate-               1.1733E-05  1.1733E-05  9.5633E-01    total aq
  LLysine+                  4.0114E-07  4.0114E-07  9.5633E-01    total aq
  LMethionine(aq)           1.0028E-08  1.0028E-08  1.0000E+00    total aq
  Niacin-                   1.0028E-08  1.0028E-08  9.5633E-01    total aq
  LAsparagine(aq)           3.2091E-06  3.2091E-06  1.0000E+00    total aq
  Succinate--               1.1031E-06  1.1031E-06  8.3602E-01    total aq
  Glycine(aq)               1.0028E-08  1.0028E-08  1.0000E+00    total aq
  LThreonine(aq)            1.0028E-08  1.0028E-08  1.0000E+00    total aq
  PPi---                    1.0028E-08  1.0028E-08  6.6820E-01    total aq
  Methanol(aq)              3.6103E-05  3.6103E-05  1.0000E+00    total aq

  complex                   molality    act coef        logK
  ----------------------------------------------------------------------------
  CaHCO3+                   4.6089E-06  9.5523E-01   -1.0467E+00
  CO3--                     5.3630E-07  8.3316E-01    1.0329E+01
  CaCO3(aq)                 3.9383E-07  1.0000E+00    7.0017E+00
  OH-                       1.0591E-07  9.5494E-01    1.3995E+01
  NH3(aq)                   4.9184E-09  1.0000E+00    9.2410E+00
  CaOH+                     6.1371E-10  9.5523E-01    1.2850E+01


  ----------------------------------------------------------------------------
  primary species: Acetate-                   total conc:   1.3180E-04
  complex species           percent   molality
  ----------------------------------------------------------------------------
  Acetate-                  100.00    1.3218E-04
  ----------------------------------------------------------------------------
  primary species: H+                         total conc:  -9.3451E-07
  complex species           percent   molality
  ----------------------------------------------------------------------------
  CO3--                      46.80    5.3630E-07
  CaCO3(aq)                  34.37    3.9383E-07
  OH-                         9.24    1.0591E-07
  H+                          9.11    1.0440E-07
  NH3(aq)                     0.43    4.9184E-09
  CaOH+                       0.05    6.1371E-10
  ----------------------------------------------------------------------------
  primary species: HCO3-                      total conc:   1.0000E-03
  complex species           percent   molality
  ----------------------------------------------------------------------------
  HCO3-                      99.45    9.9731E-04
  CaHCO3+                     0.46    4.6089E-06
  CO3--                       0.05    5.3630E-07
  CaCO3(aq)                   0.04    3.9383E-07
  ----------------------------------------------------------------------------
  primary species: Ca++                       total conc:   5.0000E-04
  complex species           percent   molality
  ----------------------------------------------------------------------------
  Ca++                       99.00    4.9642E-04
  CaHCO3+                     0.92    4.6089E-06
  CaCO3(aq)                   0.08    3.9383E-07
  ----------------------------------------------------------------------------
  primary species: O2(aq)                     total conc:   2.8986E-04
  complex species           percent   molality
  ----------------------------------------------------------------------------
  O2(aq)                    100.00    2.9069E-04
  ----------------------------------------------------------------------------
  primary species: N2(aq)                     total conc:   1.0000E-08
  complex species           percent   molality
  ----------------------------------------------------------------------------
  N2(aq)                    100.00    1.0028E-08
  ----------------------------------------------------------------------------
  primary species: NO3-                       total conc:   1.0000E-08
  complex species           percent   molality
  ----------------------------------------------------------------------------
  NO3-                      100.00    1.0028E-08
  ----------------------------------------------------------------------------
  primary species: NH4+                       total conc:   9.0000E-07
  complex species           percent   molality
  ----------------------------------------------------------------------------
  NH4+                       99.46    8.9764E-07
  NH3(aq)                     0.54    4.9184E-09
  ----------------------------------------------------------------------------
  primary species: NO2-                       total conc:   1.0000E-08
  complex species           percent   molality
  ----------------------------------------------------------------------------
  NO2-                      100.00    1.0028E-08
  ----------------------------------------------------------------------------
  primary species: CO2(aq)                    total conc:   1.0000E-06
  complex species           percent   molality
  ----------------------------------------------------------------------------
  CO2(aq)                   100.00    1.0028E-06
  ----------------------------------------------------------------------------
  primary species: Cu++                       total conc:   1.0000E-06
  complex species           percent   molality
  ----------------------------------------------------------------------------
  Cu++                      100.00    1.0028E-06
  ----------------------------------------------------------------------------
  primary species: Mg++                       total conc:   1.1000E-05
  complex species           percent   molality
  ----------------------------------------------------------------------------
  Mg++                      100.00    1.1031E-05
  ----------------------------------------------------------------------------
  primary species: Fe++                       total conc:   1.6000E-06
  complex species           percent   molality
  ----------------------------------------------------------------------------
  Fe++                      100.00    1.6046E-06
  ----------------------------------------------------------------------------
  primary species: Fe+++                      total conc:   1.0600E-05
  complex species           percent   molality
  ----------------------------------------------------------------------------
  Fe+++                     100.00    1.0630E-05
  ----------------------------------------------------------------------------
  primary species: Cl-                        total conc:   1.0000E-06
  complex species           percent   molality
  ----------------------------------------------------------------------------
  Cl-                       100.00    1.0028E-06
  ----------------------------------------------------------------------------
  primary species: Co++                       total conc:   1.0000E-06
  complex species           percent   molality
  ----------------------------------------------------------------------------
  Co++                      100.00    1.0028E-06
  ----------------------------------------------------------------------------
  primary species: Mn++                       total conc:   9.0000E-07
  complex species           percent   molality
  ----------------------------------------------------------------------------
  Mn++                      100.00    9.0256E-07
  ----------------------------------------------------------------------------
  primary species: SO4--                      total conc:   1.0000E-05
  complex species           percent   molality
  ----------------------------------------------------------------------------
  SO4--                     100.00    1.0028E-05
  ----------------------------------------------------------------------------
  primary species: HPO4--                     total conc:   1.0000E-05
  complex species           percent   molality
  ----------------------------------------------------------------------------
  HPO4--                    100.00    1.0028E-05
  ----------------------------------------------------------------------------
  primary species: Zn++                       total conc:   1.0000E-06
  complex species           percent   molality
  ----------------------------------------------------------------------------
  Zn++                      100.00    1.0028E-06
  ----------------------------------------------------------------------------
  primary species: K+                         total conc:   3.2000E-06
  complex species           percent   molality
  ----------------------------------------------------------------------------
  K+                        100.00    3.2091E-06
  ----------------------------------------------------------------------------
  primary species: LLeucine(aq)               total conc:   8.0000E-07
  complex species           percent   molality
  ----------------------------------------------------------------------------
  LLeucine(aq)              100.00    8.0228E-07
  ----------------------------------------------------------------------------
  primary species: LIsoleucine(aq)            total conc:   4.0000E-07
  complex species           percent   molality
  ----------------------------------------------------------------------------
  LIsoleucine(aq)           100.00    4.0114E-07
  ----------------------------------------------------------------------------
  primary species: BET(aq)                    total conc:   3.0000E-07
  complex species           percent   molality
  ----------------------------------------------------------------------------
  BET(aq)                   100.00    3.0085E-07
  ----------------------------------------------------------------------------
  primary species: LValine(aq)                total conc:   7.0000E-07
  complex species           percent   molality
  ----------------------------------------------------------------------------
  LValine(aq)               100.00    7.0199E-07
  ----------------------------------------------------------------------------
  primary species: SAdenosyl4methylthio2oxo   total conc:   1.0000E-08
  complex species           percent   molality
  ----------------------------------------------------------------------------
  SAdenosyl4methylthio2oxo  100.00    1.0028E-08
  ----------------------------------------------------------------------------
  primary species: CH32NH+                    total conc:   1.0000E-07
  complex species           percent   molality
  ----------------------------------------------------------------------------
  CH32NH+                   100.00    1.0028E-07
  ----------------------------------------------------------------------------
  primary species: DGlucose(aq)               total conc:   8.9000E-06
  complex species           percent   molality
  ----------------------------------------------------------------------------
  DGlucose(aq)              100.00    8.9253E-06
  ----------------------------------------------------------------------------
  primary species: LGlutamate-                total conc:   1.0000E-07
  complex species           percent   molality
  ----------------------------------------------------------------------------
  LGlutamate-               100.00    1.0028E-07
  ----------------------------------------------------------------------------
  primary species: LAlanine(aq)               total conc:   2.1000E-06
  complex species           percent   molality
  ----------------------------------------------------------------------------
  LAlanine(aq)              100.00    2.1060E-06
  ----------------------------------------------------------------------------
  primary species: LAspartate-                total conc:   1.1700E-05
  complex species           percent   molality
  ----------------------------------------------------------------------------
  LAspartate-               100.00    1.1733E-05
  ----------------------------------------------------------------------------
  primary species: LLysine+                   total conc:   4.0000E-07
  complex species           percent   molality
  ----------------------------------------------------------------------------
  LLysine+                  100.00    4.0114E-07
  ----------------------------------------------------------------------------
  primary species: LMethionine(aq)            total conc:   1.0000E-08
  complex species           percent   molality
  ----------------------------------------------------------------------------
  LMethionine(aq)           100.00    1.0028E-08
  ----------------------------------------------------------------------------
  primary species: Niacin-                    total conc:   1.0000E-08
  complex species           percent   molality
  ----------------------------------------------------------------------------
  Niacin-                   100.00    1.0028E-08
  ----------------------------------------------------------------------------
  primary species: LAsparagine(aq)            total conc:   3.2000E-06
  complex species           percent   molality
  ----------------------------------------------------------------------------
  LAsparagine(aq)           100.00    3.2091E-06
  ----------------------------------------------------------------------------
  primary species: Succinate--                total conc:   1.1000E-06
  complex species           percent   molality
  ----------------------------------------------------------------------------
  Succinate--               100.00    1.1031E-06
  ----------------------------------------------------------------------------
  primary species: Glycine(aq)                total conc:   1.0000E-08
  complex species           percent   molality
  ----------------------------------------------------------------------------
  Glycine(aq)               100.00    1.0028E-08
  ----------------------------------------------------------------------------
  primary species: LThreonine(aq)             total conc:   1.0000E-08
  complex species           percent   molality
  ----------------------------------------------------------------------------
  LThreonine(aq)            100.00    1.0028E-08
  ----------------------------------------------------------------------------
  primary species: PPi---                     total conc:   1.0000E-08
  complex species           percent   molality
  ----------------------------------------------------------------------------
  PPi---                    100.00    1.0028E-08
  ----------------------------------------------------------------------------
  primary species: Methanol(aq)               total conc:   3.6000E-05
  complex species           percent   molality
  ----------------------------------------------------------------------------
  Methanol(aq)              100.00    3.6103E-05

  gas        log part. press.  part. press. [bars]      log K
  ----------------------------------------------------------------------------
  CO2(g)       -2.2075E+00        6.2021E-03         -7.8136E+00
  O2(g)        -6.3827E-01        2.3000E-01         -2.8983E+00
  N2(g)         9.7726E+01        5.3227E+97         -1.0117E+02


--------------------------------------------------------------------------------

 Requested processors and decomposition =     1, npx,y,z=   -1  -1  -1
 Actual decomposition: npx,y,z=    1   1   1


TRAN Time Stepper
                 acceleration: on
       acceleration threshold: 5
       number of ramp entries: 5
                ramp entry #1: 2.0000
                ramp entry #2: 2.0000
                ramp entry #3: 2.0000
                ramp entry #4: 2.0000
                ramp entry #5: 2.0000
                ramp entry #6: 1.8000
                ramp entry #7: 1.6000
                ramp entry #8: 1.4000
                ramp entry #9: 1.2000
               ramp entry #10: 1.0000
               ramp entry #11: 1.0000
               ramp entry #12: 1.0000
               ramp entry #13: 1.0000
      maximum number of steps: 999999
constant time steps threshold: 5
       maximum number of cuts: 16
             reduction factor: 5.000000E-01
        maximum growth factor: 2.000000E+00

TRAN Newton Solver
                         atol: 1.000000E-50
                         rtol: 1.000000E-08
                         stol: 1.000000E-08
                         dtol: 1.000000E+04
                      maxnorm: 1.000000E+20
                    inftolres: -9.990000E+02
                    inftolupd: -9.990000E+02
                 inftolrelupd: -9.990000E+02
                 inftolsclres: -9.990000E+02
                     max iter: 50
                     min iter: 1
                         maxf: 10000
                  matrix type: baij
         precond. matrix type: baij
               inexact newton: off
            print convergence: on
   print detailed convergence: off
          check infinity norm: on

TRAN Linear Solver
                       solver: preonly
               preconditioner: lu
                         atol: 1.000000E-50
                         rtol: 1.000000E-05
                         dtol: 1.000000E+04
            maximum iteration: 10000

== REACTIVE TRANSPORT ==========================================================
  0 2r: 1.80E-11 2x: 0.00E+00 2u: 0.00E+00 ir: 1.28E-11 iu: 0.00E+00 rsn:   0
  1 2r: 2.13E-14 2x: 9.15E+01 2u: 9.89E-03 ir: 1.93E-14 iu: 8.15E-03 rsn:   0
  2 2r: 3.26E-19 2x: 9.15E+01 2u: 3.65E-05 ir: 3.18E-19 iu: 3.30E-05 rsn:   0
  3 2r: 1.21E-20 2x: 9.15E+01 2u: 5.58E-10 ir: 8.23E-21 iu: 5.45E-10 rsn: rtol
 Step      1 Time=  1.00000E-05 Dt=  1.00000E-05 [d] snes_conv_reason:    3
  newton =   3 [       3] linear =     3 [         3] cuts =  0 [   0]
  --> max chng: dcmx=   2.3434E-09  dc/dt=   2.7123E-09 [mol/s]

== REACTIVE TRANSPORT ==========================================================
  0 2r: 1.80E-11 2x: 0.00E+00 2u: 0.00E+00 ir: 1.28E-11 iu: 0.00E+00 rsn:   0
  1 2r: 4.24E-14 2x: 9.15E+01 2u: 1.96E-02 ir: 3.83E-14 iu: 1.62E-02 rsn:   0
  2 2r: 2.53E-18 2x: 9.15E+01 2u: 1.43E-04 ir: 2.47E-18 iu: 1.29E-04 rsn:   0
  3 2r: 5.52E-21 2x: 9.15E+01 2u: 8.54E-09 ir: 3.73E-21 iu: 8.33E-09 rsn: rtol
 Step      2 Time=  3.00000E-05 Dt=  2.00000E-05 [d] snes_conv_reason:    3
  newton =   3 [       6] linear =     3 [         6] cuts =  0 [   0]
  --> max chng: dcmx=   4.6867E-09  dc/dt=   2.7122E-09 [mol/s]

== REACTIVE TRANSPORT ==========================================================
  0 2r: 1.80E-11 2x: 0.00E+00 2u: 0.00E+00 ir: 1.28E-11 iu: 0.00E+00 rsn:   0
  1 2r: 8.39E-14 2x: 9.15E+01 2u: 3.87E-02 ir: 7.56E-14 iu: 3.18E-02 rsn:   0
  2 2r: 1.91E-17 2x: 9.15E+01 2u: 5.48E-04 ir: 1.87E-17 iu: 4.94E-04 rsn:   0
  3 2r: 4.69E-21 2x: 9.15E+01 2u: 1.25E-07 ir: 3.67E-21 iu: 1.22E-07 rsn: rtol
 Step      3 Time=  7.00000E-05 Dt=  4.00000E-05 [d] snes_conv_reason:    3
  newton =   3 [       9] linear =     3 [         9] cuts =  0 [   0]
  --> max chng: dcmx=   9.3730E-09  dc/dt=   2.7121E-09 [mol/s]

== REACTIVE TRANSPORT ==========================================================
  0 2r: 1.80E-11 2x: 0.00E+00 2u: 0.00E+00 ir: 1.28E-11 iu: 0.00E+00 rsn:   0
  1 2r: 1.64E-13 2x: 9.15E+01 2u: 7.51E-02 ir: 1.47E-13 iu: 6.14E-02 rsn:   0
  2 2r: 1.37E-16 2x: 9.15E+01 2u: 2.02E-03 ir: 1.33E-16 iu: 1.81E-03 rsn:   0
  3 2r: 1.53E-21 2x: 9.15E+01 2u: 1.69E-06 ir: 1.25E-21 iu: 1.64E-06 rsn: rtol
 Step      4 Time=  1.50000E-04 Dt=  8.00000E-05 [d] snes_conv_reason:    3
  newton =   3 [      12] linear =     3 [        12] cuts =  0 [   0]
  --> max chng: dcmx=   1.8744E-08  dc/dt=   2.7118E-09 [mol/s]

== REACTIVE TRANSPORT ==========================================================
  0 2r: 1.80E-11 2x: 0.00E+00 2u: 0.00E+00 ir: 1.28E-11 iu: 0.00E+00 rsn:   0
  1 2r: 3.13E-13 2x: 9.14E+01 2u: 1.42E-01 ir: 2.81E-13 iu: 1.15E-01 rsn:   0
  2 2r: 8.86E-16 2x: 9.14E+01 2u: 6.92E-03 ir: 8.58E-16 iu: 6.13E-03 rsn:   0
  3 2r: 8.25E-21 2x: 9.14E+01 2u: 1.96E-05 ir: 8.09E-21 iu: 1.89E-05 rsn: rtol
 Step      5 Time=  3.10000E-04 Dt=  1.60000E-04 [d] snes_conv_reason:    3
  newton =   3 [      15] linear =     3 [        15] cuts =  0 [   0]
  --> max chng: dcmx=   3.7482E-08  dc/dt=   2.7114E-09 [mol/s]

== REACTIVE TRANSPORT ==========================================================
  0 2r: 1.80E-11 2x: 0.00E+00 2u: 0.00E+00 ir: 1.28E-11 iu: 0.00E+00 rsn:   0
  1 2r: 5.75E-13 2x: 9.14E+01 2u: 2.55E-01 ir: 5.10E-13 iu: 2.04E-01 rsn:   0
  2 2r: 4.81E-15 2x: 9.14E+01 2u: 2.10E-02 ir: 4.61E-15 iu: 1.82E-02 rsn:   0
  3 2r: 3.88E-19 2x: 9.14E+01 2u: 1.76E-04 ir: 3.86E-19 iu: 1.68E-04 rsn:   0
  4 2r: 2.88E-22 2x: 9.14E+01 2u: 1.41E-08 ir: 2.12E-22 iu: 1.40E-08 rsn: rtol
 Step      6 Time=  6.30000E-04 Dt=  3.20000E-04 [d] snes_conv_reason:    3
  newton =   4 [      19] linear =     4 [        19] cuts =  0 [   0]
  --> max chng: dcmx=   7.4936E-08  dc/dt=   2.7104E-09 [mol/s]

== REACTIVE TRANSPORT ==========================================================
  0 2r: 1.81E-11 2x: 0.00E+00 2u: 0.00E+00 ir: 1.28E-11 iu: 0.00E+00 rsn:   0
  1 2r: 9.84E-13 2x: 9.13E+01 2u: 4.25E-01 ir: 8.57E-13 iu: 3.32E-01 rsn:   0
  2 2r: 1.99E-14 2x: 9.13E+01 2u: 5.31E-02 ir: 1.87E-14 iu: 4.43E-02 rsn:   0
  3 2r: 9.53E-18 2x: 9.13E+01 2u: 1.10E-03 ir: 9.38E-18 iu: 1.01E-03 rsn:   0
  4 2r: 9.57E-23 2x: 9.13E+01 2u: 5.16E-07 ir: 8.80E-23 iu: 5.07E-07 rsn: rtol
 Step      7 Time=  1.27000E-03 Dt=  6.40000E-04 [d] snes_conv_reason:    3
  newton =   4 [      23] linear =     4 [        23] cuts =  0 [   0]
  --> max chng: dcmx=   1.4976E-07  dc/dt=   2.7083E-09 [mol/s]

== REACTIVE TRANSPORT ==========================================================
  0 2r: 1.82E-11 2x: 0.00E+00 2u: 0.00E+00 ir: 1.28E-11 iu: 0.00E+00 rsn:   0
  1 2r: 1.15E-12 2x: 9.11E+01 2u: 5.00E-01 ir: 9.67E-13 iu: 3.77E-01 rsn:   0
  2 2r: 2.92E-14 2x: 9.12E+01 2u: 7.00E-02 ir: 2.62E-14 iu: 5.54E-02 rsn:   0
  3 2r: 2.17E-17 2x: 9.12E+01 2u: 1.85E-03 ir: 2.07E-17 iu: 1.59E-03 rsn:   0
  4 2r: 1.69E-22 2x: 9.12E+01 2u: 1.33E-06 ir: 1.12E-22 iu: 1.26E-06 rsn: rtol
 Step      8 Time=  2.27000E-03 Dt=  1.00000E-03 [d] snes_conv_reason:    3
  newton =   4 [      27] linear =     4 [        27] cuts =  0 [   0]
  --> max chng: dcmx=   2.3371E-07  dc/dt=   2.7049E-09 [mol/s]

== REACTIVE TRANSPORT ==========================================================
  0 2r: 1.84E-11 2x: 0.00E+00 2u: 0.00E+00 ir: 1.28E-11 iu: 0.00E+00 rsn:   0
  1 2r: 7.88E-13 2x: 9.11E+01 2u: 3.64E-01 ir: 6.33E-13 iu: 2.65E-01 rsn:   0
  2 2r: 1.08E-14 2x: 9.11E+01 2u: 3.91E-02 ir: 9.20E-15 iu: 2.95E-02 rsn:   0
  3 2r: 2.23E-18 2x: 9.11E+01 2u: 5.54E-04 ir: 2.02E-18 iu: 4.41E-04 rsn:   0
  4 2r: 3.06E-22 2x: 9.11E+01 2u: 1.12E-07 ir: 2.12E-22 iu: 9.71E-08 rsn: rtol
 Step      9 Time=  3.27000E-03 Dt=  1.00000E-03 [d] snes_conv_reason:    3
  newton =   4 [      31] linear =     4 [        31] cuts =  0 [   0]
  --> max chng: dcmx=   2.3340E-07  dc/dt=   2.7014E-09 [mol/s]

== REACTIVE TRANSPORT ==========================================================
  0 2r: 1.86E-11 2x: 0.00E+00 2u: 0.00E+00 ir: 1.28E-11 iu: 0.00E+00 rsn:   0
  1 2r: 6.00E-13 2x: 9.10E+01 2u: 2.86E-01 ir: 4.60E-13 iu: 2.03E-01 rsn:   0
  2 2r: 5.02E-15 2x: 9.10E+01 2u: 2.48E-02 ir: 4.10E-15 iu: 1.80E-02 rsn:   0
  3 2r: 3.96E-19 2x: 9.10E+01 2u: 2.19E-04 ir: 3.34E-19 iu: 1.64E-04 rsn:   0
  4 2r: 1.89E-22 2x: 9.10E+01 2u: 1.71E-08 ir: 1.75E-22 iu: 1.33E-08 rsn: rtol
 Step     10 Time=  4.27000E-03 Dt=  1.00000E-03 [d] snes_conv_reason:    3
  newton =   4 [      35] linear =     4 [        35] cuts =  0 [   0]
  --> max chng: dcmx=   2.3307E-07  dc/dt=   2.6976E-09 [mol/s]

== REACTIVE TRANSPORT ==========================================================
  0 2r: 1.88E-11 2x: 0.00E+00 2u: 0.00E+00 ir: 1.27E-11 iu: 0.00E+00 rsn:   0
  1 2r: 4.87E-13 2x: 9.09E+01 2u: 2.36E-01 ir: 3.54E-13 iu: 1.64E-01 rsn:   0
  2 2r: 2.71E-15 2x: 9.09E+01 2u: 1.71E-02 ir: 2.11E-15 iu: 1.21E-02 rsn:   0
  3 2r: 9.83E-20 2x: 9.09E+01 2u: 1.03E-04 ir: 7.60E-20 iu: 7.38E-05 rsn: rtol
 Step     11 Time=  5.27000E-03 Dt=  1.00000E-03 [d] snes_conv_reason:    3
  newton =   3 [      38] linear =     3 [        38] cuts =  0 [   0]
  --> max chng: dcmx=   2.3273E-07  dc/dt=   2.6936E-09 [mol/s]

== REACTIVE TRANSPORT ==========================================================
  0 2r: 1.90E-11 2x: 0.00E+00 2u: 0.00E+00 ir: 1.27E-11 iu: 0.00E+00 rsn:   0
  1 2r: 4.14E-13 2x: 9.09E+01 2u: 2.02E-01 ir: 2.84E-13 iu: 1.41E-01 rsn:   0
  2 2r: 1.61E-15 2x: 9.09E+01 2u: 1.24E-02 ir: 1.20E-15 iu: 9.04E-03 rsn:   0
  3 2r: 3.08E-20 2x: 9.09E+01 2u: 5.47E-05 ir: 2.19E-20 iu: 4.11E-05 rsn: rtol
 Step     12 Time=  6.27000E-03 Dt=  1.00000E-03 [d] snes_conv_reason:    3
  newton =   3 [      41] linear =     3 [        41] cuts =  0 [   0]
  --> max chng: dcmx=   2.3236E-07  dc/dt=   2.6894E-09 [mol/s]

== REACTIVE TRANSPORT ==========================================================
  0 2r: 1.92E-11 2x: 0.00E+00 2u: 0.00E+00 ir: 1.27E-11 iu: 0.00E+00 rsn:   0
  1 2r: 3.65E-13 2x: 9.08E+01 2u: 1.78E-01 ir: 2.34E-13 iu: 1.23E-01 rsn:   0
  2 2r: 1.03E-15 2x: 9.08E+01 2u: 9.44E-03 ir: 7.29E-16 iu: 7.00E-03 rsn:   0
  3 2r: 1.14E-20 2x: 9.08E+01 2u: 3.16E-05 ir: 8.84E-21 iu: 2.46E-05 rsn: rtol
 Step     13 Time=  7.27000E-03 Dt=  1.00000E-03 [d] snes_conv_reason:    3
  newton =   3 [      44] linear =     3 [        44] cuts =  0 [   0]
  --> max chng: dcmx=   2.3197E-07  dc/dt=   2.6848E-09 [mol/s]

== REACTIVE TRANSPORT ==========================================================
  0 2r: 1.93E-11 2x: 0.00E+00 2u: 0.00E+00 ir: 1.27E-11 iu: 0.00E+00 rsn:   0
  1 2r: 3.31E-13 2x: 9.08E+01 2u: 1.60E-01 ir: 1.96E-13 iu: 1.10E-01 rsn:   0
  2 2r: 6.92E-16 2x: 9.08E+01 2u: 7.42E-03 ir: 5.06E-16 iu: 5.58E-03 rsn:   0
  3 2r: 4.78E-21 2x: 9.08E+01 2u: 1.94E-05 ir: 3.95E-21 iu: 1.56E-05 rsn: rtol
 Step     14 Time=  8.27000E-03 Dt=  1.00000E-03 [d] snes_conv_reason:    3
  newton =   3 [      47] linear =     3 [        47] cuts =  0 [   0]
  --> max chng: dcmx=   2.3155E-07  dc/dt=   2.6800E-09 [mol/s]

== REACTIVE TRANSPORT ==========================================================
  0 2r: 1.95E-11 2x: 0.00E+00 2u: 0.00E+00 ir: 1.27E-11 iu: 0.00E+00 rsn:   0
  1 2r: 3.06E-13 2x: 9.07E+01 2u: 1.46E-01 ir: 1.91E-13 iu: 9.85E-02 rsn:   0
  2 2r: 4.87E-16 2x: 9.07E+01 2u: 5.99E-03 ir: 3.69E-16 iu: 4.55E-03 rsn:   0
  3 2r: 2.23E-21 2x: 9.07E+01 2u: 1.26E-05 ir: 1.92E-21 iu: 1.04E-05 rsn: rtol
 Step     15 Time=  9.27000E-03 Dt=  1.00000E-03 [d] snes_conv_reason:    3
  newton =   3 [      50] linear =     3 [        50] cuts =  0 [   0]
  --> max chng: dcmx=   2.3111E-07  dc/dt=   2.6749E-09 [mol/s]

== REACTIVE TRANSPORT ==========================================================
  0 2r: 1.97E-11 2x: 0.00E+00 2u: 0.00E+00 ir: 1.27E-11 iu: 0.00E+00 rsn:   0
  1 2r: 2.90E-13 2x: 9.07E+01 2u: 1.36E-01 ir: 1.96E-13 iu: 8.95E-02 rsn:   0
  2 2r: 3.56E-16 2x: 9.07E+01 2u: 4.96E-03 ir: 2.77E-16 iu: 3.78E-03 rsn:   0
  3 2r: 1.12E-21 2x: 9.07E+01 2u: 8.49E-06 ir: 9.92E-22 iu: 7.16E-06 rsn: rtol
 Step     16 Time=  1.02700E-02 Dt=  1.00000E-03 [d] snes_conv_reason:    3
  newton =   3 [      53] linear =     3 [        53] cuts =  0 [   0]
  --> max chng: dcmx=   2.3064E-07  dc/dt=   2.6695E-09 [mol/s]

== REACTIVE TRANSPORT ==========================================================
  0 2r: 1.98E-11 2x: 0.00E+00 2u: 0.00E+00 ir: 1.26E-11 iu: 0.00E+00 rsn:   0
  1 2r: 5.55E-13 2x: 9.06E+01 2u: 2.56E-01 ir: 3.96E-13 iu: 1.64E-01 rsn:   0
  2 2r: 2.03E-15 2x: 9.06E+01 2u: 1.58E-02 ir: 1.65E-15 iu: 1.20E-02 rsn:   0
  3 2r: 6.40E-20 2x: 9.06E+01 2u: 8.36E-05 ir: 6.04E-20 iu: 7.32E-05 rsn: rtol
 Step     17 Time=  1.22700E-02 Dt=  2.00000E-03 [d] snes_conv_reason:    3
  newton =   3 [      56] linear =     3 [        56] cuts =  0 [   0]
  --> max chng: dcmx=   4.5920E-07  dc/dt=   2.6574E-09 [mol/s]

== REACTIVE TRANSPORT ==========================================================
  0 2r: 2.01E-11 2x: 0.00E+00 2u: 0.00E+00 ir: 1.26E-11 iu: 0.00E+00 rsn:   0
  1 2r: 1.04E-12 2x: 9.04E+01 2u: 4.67E-01 ir: 8.09E-13 iu: 2.78E-01 rsn:   0
  2 2r: 9.61E-15 2x: 9.04E+01 2u: 4.55E-02 ir: 7.82E-15 iu: 3.26E-02 rsn:   0
  3 2r: 2.17E-18 2x: 9.04E+01 2u: 6.16E-04 ir: 2.13E-18 iu: 5.44E-04 rsn:   0
  4 2r: 2.84E-23 2x: 9.04E+01 2u: 1.51E-07 ir: 2.65E-23 iu: 1.48E-07 rsn: rtol
 Step     18 Time=  1.62700E-02 Dt=  4.00000E-03 [d] snes_conv_reason:    3
  newton =   4 [      60] linear =     4 [        60] cuts =  0 [   0]
  --> max chng: dcmx=   9.0818E-07  dc/dt=   2.6278E-09 [mol/s]

== REACTIVE TRANSPORT ==========================================================
  0 2r: 2.06E-11 2x: 0.00E+00 2u: 0.00E+00 ir: 1.34E-11 iu: 0.00E+00 rsn:   0
  1 2r: 1.94E-12 2x: 9.02E+01 2u: 8.18E-01 ir: 1.66E-12 iu: 4.24E-01 rsn:   0
  2 2r: 5.00E-14 2x: 9.02E+01 2u: 1.24E-01 ir: 4.05E-14 iu: 7.09E-02 rsn:   0
  3 2r: 4.65E-17 2x: 9.02E+01 2u: 3.93E-03 ir: 3.83E-17 iu: 2.73E-03 rsn:   0
  4 2r: 7.91E-23 2x: 9.02E+01 2u: 4.47E-06 ir: 7.32E-23 iu: 3.78E-06 rsn: rtol
 Step     19 Time=  2.42700E-02 Dt=  8.00000E-03 [d] snes_conv_reason:    3
  newton =   4 [      64] linear =     4 [        64] cuts =  0 [   0]
  --> max chng: dcmx=   1.7516E-06  dc/dt=   2.5341E-09 [mol/s]

== REACTIVE TRANSPORT ==========================================================
  0 2r: 2.12E-11 2x: 0.00E+00 2u: 0.00E+00 ir: 1.45E-11 iu: 0.00E+00 rsn:   0
  1 2r: 2.50E-12 2x: 9.00E+01 2u: 8.79E-01 ir: 2.32E-12 iu: 5.17E-01 rsn:   0
  2 2r: 1.33E-13 2x: 9.01E+01 2u: 1.86E-01 ir: 1.30E-13 iu: 1.53E-01 rsn:   0
  3 2r: 4.61E-16 2x: 9.01E+01 2u: 1.05E-02 ir: 4.53E-16 iu: 9.60E-03 rsn:   0
  4 2r: 5.63E-21 2x: 9.01E+01 2u: 3.54E-05 ir: 5.55E-21 iu: 3.37E-05 rsn: rtol
 Step     20 Time=  3.42700E-02 Dt=  1.00000E-02 [d] snes_conv_reason:    3
  newton =   4 [      68] linear =     4 [        68] cuts =  0 [   0]
  --> max chng: dcmx=   1.9596E-06  dc/dt=   2.2680E-09 [mol/s]

== REACTIVE TRANSPORT ==========================================================
  0 2r: 2.06E-11 2x: 0.00E+00 2u: 0.00E+00 ir: 1.49E-11 iu: 0.00E+00 rsn:   0
  1 2r: 2.56E-12 2x: 9.01E+01 2u: 9.57E-01 ir: 2.40E-12 iu: 8.07E-01 rsn:   0
  2 2r: 1.67E-13 2x: 9.01E+01 2u: 3.04E-01 ir: 1.63E-13 iu: 2.92E-01 rsn:   0
  3 2r: 8.76E-16 2x: 9.02E+01 2u: 2.35E-02 ir: 8.59E-16 iu: 2.28E-02 rsn:   0
  4 2r: 2.47E-20 2x: 9.02E+01 2u: 1.25E-04 ir: 2.41E-20 iu: 1.21E-04 rsn: rtol
 Step     21 Time=  4.42700E-02 Dt=  1.00000E-02 [d] snes_conv_reason:    3
  newton =   4 [      72] linear =     4 [        72] cuts =  0 [   0]
  --> max chng: dcmx=   1.3491E-06  dc/dt=   1.5615E-09 [mol/s]

== REACTIVE TRANSPORT ==========================================================
  0 2r: 1.72E-11 2x: 0.00E+00 2u: 0.00E+00 ir: 1.32E-11 iu: 0.00E+00 rsn:   0
  1 2r: 1.76E-12 2x: 9.03E+01 2u: 1.13E+00 ir: 1.61E-12 iu: 1.06E+00 rsn:   0
  2 2r: 2.00E-13 2x: 9.04E+01 2u: 3.90E-01 ir: 1.76E-13 iu: 3.86E-01 rsn:   0
  3 2r: 3.73E-15 2x: 9.04E+01 2u: 5.40E-02 ir: 3.17E-15 iu: 5.40E-02 rsn:   0
  4 2r: 1.29E-18 2x: 9.04E+01 2u: 1.01E-03 ir: 1.09E-18 iu: 1.01E-03 rsn:   0
  5 2r: 3.52E-23 2x: 9.04E+01 2u: 3.46E-07 ir: 3.31E-23 iu: 3.46E-07 rsn: rtol
 Step     22 Time=  5.42700E-02 Dt=  1.00000E-02 [d] snes_conv_reason:    3
  newton =   5 [      77] linear =     5 [        77] cuts =  0 [   0]
  --> max chng: dcmx=   7.4097E-07  dc/dt=   8.5761E-10 [mol/s]

== REACTIVE TRANSPORT ==========================================================
  0 2r: 1.23E-11 2x: 0.00E+00 2u: 0.00E+00 ir: 9.59E-12 iu: 0.00E+00 rsn:   0
  1 2r: 1.12E-12 2x: 9.06E+01 2u: 9.65E-01 ir: 7.46E-13 iu: 8.89E-01 rsn:   0
  2 2r: 1.67E-13 2x: 9.07E+01 2u: 4.71E-01 ir: 1.32E-13 iu: 4.69E-01 rsn:   0
  3 2r: 9.11E-15 2x: 9.07E+01 2u: 1.25E-01 ir: 7.14E-15 iu: 1.25E-01 rsn:   0
  4 2r: 3.13E-17 2x: 9.07E+01 2u: 7.57E-03 ir: 2.45E-17 iu: 7.57E-03 rsn:   0
  5 2r: 3.70E-22 2x: 9.07E+01 2u: 2.61E-05 ir: 2.90E-22 iu: 2.61E-05 rsn: rtol
 Step     23 Time=  6.42700E-02 Dt=  1.00000E-02 [d] snes_conv_reason:    3
  newton =   5 [      82] linear =     5 [        82] cuts =  0 [   0]
  --> max chng: dcmx=   6.2161E-07  dc/dt=   7.1946E-10 [mol/s]

== REACTIVE TRANSPORT ==========================================================
  0 2r: 9.69E-12 2x: 0.00E+00 2u: 0.00E+00 ir: 7.05E-12 iu: 0.00E+00 rsn:   0
  1 2r: 6.28E-13 2x: 9.09E+01 2u: 7.52E-01 ir: 5.57E-13 iu: 6.50E-01 rsn:   0
  2 2r: 2.57E-14 2x: 9.10E+01 2u: 2.96E-01 ir: 1.92E-14 iu: 2.93E-01 rsn:   0
  3 2r: 5.83E-16 2x: 9.10E+01 2u: 4.96E-02 ir: 4.50E-16 iu: 4.96E-02 rsn:   0
  4 2r: 3.43E-19 2x: 9.10E+01 2u: 1.22E-03 ir: 2.65E-19 iu: 1.22E-03 rsn:   0
  5 2r: 1.64E-23 2x: 9.10E+01 2u: 7.20E-07 ir: 1.51E-23 iu: 7.20E-07 rsn: rtol
 Step     24 Time=  7.42700E-02 Dt=  1.00000E-02 [d] snes_conv_reason:    3
  newton =   5 [      87] linear =     5 [        87] cuts =  0 [   0]
  --> max chng: dcmx=   5.0432E-07  dc/dt=   5.8370E-10 [mol/s]

== REACTIVE TRANSPORT ==========================================================
  0 2r: 7.88E-12 2x: 0.00E+00 2u: 0.00E+00 ir: 5.49E-12 iu: 0.00E+00 rsn:   0
  1 2r: 5.05E-13 2x: 9.12E+01 2u: 4.68E-01 ir: 4.67E-13 iu: 2.69E-01 rsn:   0
  2 2r: 7.07E-15 2x: 9.12E+01 2u: 5.94E-02 ir: 6.56E-15 iu: 4.01E-02 rsn:   0
  3 2r: 1.45E-18 2x: 9.12E+01 2u: 9.95E-04 ir: 1.34E-18 iu: 7.86E-04 rsn:   0
  4 2r: 1.11E-23 2x: 9.12E+01 2u: 3.22E-07 ir: 9.05E-24 iu: 2.97E-07 rsn: rtol
 Step     25 Time=  8.42700E-02 Dt=  1.00000E-02 [d] snes_conv_reason:    3
  newton =   4 [      91] linear =     4 [        91] cuts =  0 [   0]
  --> max chng: dcmx=   4.0092E-07  dc/dt=   4.6402E-10 [mol/s]

== REACTIVE TRANSPORT ==========================================================
  0 2r: 6.33E-12 2x: 0.00E+00 2u: 0.00E+00 ir: 4.32E-12 iu: 0.00E+00 rsn:   0
  1 2r: 4.14E-13 2x: 9.13E+01 2u: 3.90E-01 ir: 3.82E-13 iu: 2.39E-01 rsn:   0
  2 2r: 6.18E-15 2x: 9.13E+01 2u: 4.70E-02 ir: 5.70E-15 iu: 3.16E-02 rsn:   0
  3 2r: 1.43E-18 2x: 9.13E+01 2u: 6.94E-04 ir: 1.32E-18 iu: 4.86E-04 rsn:   0
  4 2r: 4.13E-23 2x: 9.13E+01 2u: 1.59E-07 ir: 3.97E-23 iu: 1.13E-07 rsn: rtol
 Step     26 Time=  9.42700E-02 Dt=  1.00000E-02 [d] snes_conv_reason:    3
  newton =   4 [      95] linear =     4 [        95] cuts =  0 [   0]
  --> max chng: dcmx=   3.1387E-07  dc/dt=   3.6328E-10 [mol/s]

== REACTIVE TRANSPORT ==========================================================
  0 2r: 5.01E-12 2x: 0.00E+00 2u: 0.00E+00 ir: 3.38E-12 iu: 0.00E+00 rsn:   0
  1 2r: 2.16E-13 2x: 9.13E+01 2u: 2.49E-01 ir: 2.01E-13 iu: 1.53E-01 rsn:   0
  2 2r: 1.32E-15 2x: 9.13E+01 2u: 1.89E-02 ir: 1.23E-15 iu: 1.26E-02 rsn:   0
  3 2r: 5.05E-20 2x: 9.13E+01 2u: 1.12E-04 ir: 4.72E-20 iu: 7.83E-05 rsn:   0
  4 2r: 4.20E-23 2x: 9.13E+01 2u: 4.22E-09 ir: 3.97E-23 iu: 2.99E-09 rsn: rtol
 Step     27 Time=  1.00000E-01 Dt=  5.73000E-03 [d] snes_conv_reason:    3
  newton =   4 [      99] linear =     4 [        99] cuts =  0 [   0]
  --> max chng: dcmx=   1.5418E-07  dc/dt=   3.1144E-10 [mol/s]

== REACTIVE TRANSPORT ==========================================================
  0 2r: 4.33E-12 2x: 0.00E+00 2u: 0.00E+00 ir: 2.89E-12 iu: 0.00E+00 rsn:   0
  1 2r: 2.89E-13 2x: 9.14E+01 2u: 4.03E-01 ir: 2.64E-13 iu: 2.43E-01 rsn:   0
  2 2r: 4.62E-15 2x: 9.15E+01 2u: 5.13E-02 ir: 4.22E-15 iu: 3.34E-02 rsn:   0
  3 2r: 1.23E-18 2x: 9.15E+01 2u: 8.04E-04 ir: 1.13E-18 iu: 5.51E-04 rsn:   0
  4 2r: 2.69E-23 2x: 9.15E+01 2u: 2.09E-07 ir: 2.65E-23 iu: 1.47E-07 rsn: rtol
 Step     28 Time=  1.10000E-01 Dt=  1.00000E-02 [d] snes_conv_reason:    3
  newton =   4 [     103] linear =     4 [       103] cuts =  0 [   0]
  --> max chng: dcmx=   2.0677E-07  dc/dt=   2.3932E-10 [mol/s]

== REACTIVE TRANSPORT ==========================================================
  0 2r: 3.36E-12 2x: 0.00E+00 2u: 0.00E+00 ir: 2.22E-12 iu: 0.00E+00 rsn:   0
  1 2r: 2.25E-13 2x: 9.16E+01 2u: 4.06E-01 ir: 2.05E-13 iu: 2.44E-01 rsn:   0
  2 2r: 3.69E-15 2x: 9.16E+01 2u: 5.30E-02 ir: 3.36E-15 iu: 3.39E-02 rsn:   0
  3 2r: 1.03E-18 2x: 9.16E+01 2u: 8.49E-04 ir: 9.41E-19 iu: 5.74E-04 rsn:   0
  4 2r: 2.38E-23 2x: 9.16E+01 2u: 2.30E-07 ir: 1.84E-23 iu: 1.61E-07 rsn: rtol
 Step     29 Time=  1.20000E-01 Dt=  1.00000E-02 [d] snes_conv_reason:    3
  newton =   4 [     107] linear =     4 [       107] cuts =  0 [   0]
  --> max chng: dcmx=   1.5751E-07  dc/dt=   1.8231E-10 [mol/s]

== REACTIVE TRANSPORT ==========================================================
  0 2r: 2.58E-12 2x: 0.00E+00 2u: 0.00E+00 ir: 1.69E-12 iu: 0.00E+00 rsn:   0
  1 2r: 1.73E-13 2x: 9.17E+01 2u: 4.06E-01 ir: 1.57E-13 iu: 2.44E-01 rsn:   0
  2 2r: 2.86E-15 2x: 9.17E+01 2u: 5.38E-02 ir: 2.60E-15 iu: 3.41E-02 rsn:   0
  3 2r: 8.16E-19 2x: 9.17E+01 2u: 8.70E-04 ir: 7.42E-19 iu: 5.83E-04 rsn:   0
  4 2r: 2.38E-23 2x: 9.17E+01 2u: 2.39E-07 ir: 1.99E-23 iu: 1.67E-07 rsn: rtol
 Step     30 Time=  1.30000E-01 Dt=  1.00000E-02 [d] snes_conv_reason:    3
  newton =   4 [     111] linear =     4 [       111] cuts =  0 [   0]
  --> max chng: dcmx=   1.1916E-07  dc/dt=   1.3792E-10 [mol/s]

== REACTIVE TRANSPORT ==========================================================
  0 2r: 1.96E-12 2x: 0.00E+00 2u: 0.00E+00 ir: 1.28E-12 iu: 0.00E+00 rsn:   0
  1 2r: 1.32E-13 2x: 9.18E+01 2u: 4.03E-01 ir: 1.19E-13 iu: 2.42E-01 rsn:   0
  2 2r: 2.16E-15 2x: 9.19E+01 2u: 5.35E-02 ir: 1.95E-15 iu: 3.38E-02 rsn:   0
  3 2r: 6.11E-19 2x: 9.19E+01 2u: 8.63E-04 ir: 5.54E-19 iu: 5.76E-04 rsn:   0
  4 2r: 4.25E-23 2x: 9.19E+01 2u: 2.35E-07 ir: 3.97E-23 iu: 1.64E-07 rsn: rtol
 Step     31 Time=  1.40000E-01 Dt=  1.00000E-02 [d] snes_conv_reason:    3
  newton =   4 [     115] linear =     4 [       115] cuts =  0 [   0]
  --> max chng: dcmx=   8.9668E-08  dc/dt=   1.0378E-10 [mol/s]

== REACTIVE TRANSPORT ==========================================================
  0 2r: 1.48E-12 2x: 0.00E+00 2u: 0.00E+00 ir: 9.63E-13 iu: 0.00E+00 rsn:   0
  1 2r: 9.87E-14 2x: 9.20E+01 2u: 3.97E-01 ir: 8.86E-14 iu: 2.39E-01 rsn:   0
  2 2r: 1.59E-15 2x: 9.20E+01 2u: 5.23E-02 ir: 1.43E-15 iu: 3.31E-02 rsn:   0
  3 2r: 4.32E-19 2x: 9.20E+01 2u: 8.27E-04 ir: 3.91E-19 iu: 5.53E-04 rsn:   0
  4 2r: 1.71E-23 2x: 9.20E+01 2u: 2.17E-07 ir: 1.30E-23 iu: 1.51E-07 rsn: rtol
 Step     32 Time=  1.50000E-01 Dt=  1.00000E-02 [d] snes_conv_reason:    3
  newton =   4 [     119] linear =     4 [       119] cuts =  0 [   0]
  --> max chng: dcmx=   6.7196E-08  dc/dt=   7.7773E-11 [mol/s]

== REACTIVE TRANSPORT ==========================================================
  0 2r: 1.12E-12 2x: 0.00E+00 2u: 0.00E+00 ir: 7.21E-13 iu: 0.00E+00 rsn:   0
  1 2r: 7.31E-14 2x: 9.21E+01 2u: 3.87E-01 ir: 6.54E-14 iu: 2.35E-01 rsn:   0
  2 2r: 1.13E-15 2x: 9.22E+01 2u: 5.00E-02 ir: 1.02E-15 iu: 3.19E-02 rsn:   0
  3 2r: 2.87E-19 2x: 9.22E+01 2u: 7.63E-04 ir: 2.59E-19 iu: 5.14E-04 rsn:   0
  4 2r: 1.69E-23 2x: 9.22E+01 2u: 1.87E-07 ir: 1.22E-23 iu: 1.31E-07 rsn: rtol
 Step     33 Time=  1.60000E-01 Dt=  1.00000E-02 [d] snes_conv_reason:    3
  newton =   4 [     123] linear =     4 [       123] cuts =  0 [   0]
  --> max chng: dcmx=   5.0197E-08  dc/dt=   5.8099E-11 [mol/s]

== REACTIVE TRANSPORT ==========================================================
  0 2r: 8.35E-13 2x: 0.00E+00 2u: 0.00E+00 ir: 5.39E-13 iu: 0.00E+00 rsn:   0
  1 2r: 5.34E-14 2x: 9.23E+01 2u: 3.74E-01 ir: 4.77E-14 iu: 2.28E-01 rsn:   0
  2 2r: 7.85E-16 2x: 9.23E+01 2u: 4.68E-02 ir: 7.06E-16 iu: 3.01E-02 rsn:   0
  3 2r: 1.78E-19 2x: 9.23E+01 2u: 6.76E-04 ir: 1.61E-19 iu: 4.60E-04 rsn:   0
  4 2r: 1.09E-23 2x: 9.23E+01 2u: 1.49E-07 ir: 6.62E-24 iu: 1.05E-07 rsn: rtol
 Step     34 Time=  1.70000E-01 Dt=  1.00000E-02 [d] snes_conv_reason:    3
  newton =   4 [     127] linear =     4 [       127] cuts =  0 [   0]
  --> max chng: dcmx=   3.7410E-08  dc/dt=   4.3298E-11 [mol/s]

== REACTIVE TRANSPORT ==========================================================
  0 2r: 6.24E-13 2x: 0.00E+00 2u: 0.00E+00 ir: 4.02E-13 iu: 0.00E+00 rsn:   0
  1 2r: 3.86E-14 2x: 9.24E+01 2u: 3.56E-01 ir: 3.44E-14 iu: 2.20E-01 rsn:   0
  2 2r: 5.25E-16 2x: 9.24E+01 2u: 4.27E-02 ir: 4.72E-16 iu: 2.79E-02 rsn:   0
  3 2r: 1.02E-19 2x: 9.24E+01 2u: 5.72E-04 ir: 9.21E-20 iu: 3.94E-04 rsn:   0
  4 2r: 3.50E-23 2x: 9.24E+01 2u: 1.09E-07 ir: 3.31E-23 iu: 7.72E-08 rsn: rtol
 Step     35 Time=  1.80000E-01 Dt=  1.00000E-02 [d] snes_conv_reason:    3
  newton =   4 [     131] linear =     4 [       131] cuts =  0 [   0]
  --> max chng: dcmx=   2.7830E-08  dc/dt=   3.2210E-11 [mol/s]

== REACTIVE TRANSPORT ==========================================================
  0 2r: 4.64E-13 2x: 0.00E+00 2u: 0.00E+00 ir: 2.99E-13 iu: 0.00E+00 rsn:   0
  1 2r: 2.74E-14 2x: 9.25E+01 2u: 3.35E-01 ir: 2.45E-14 iu: 2.10E-01 rsn:   0
  2 2r: 3.37E-16 2x: 9.26E+01 2u: 3.80E-02 ir: 3.03E-16 iu: 2.52E-02 rsn:   0
  3 2r: 5.33E-20 2x: 9.26E+01 2u: 4.60E-04 ir: 4.81E-20 iu: 3.20E-04 rsn:   0
  4 2r: 1.46E-23 2x: 9.26E+01 2u: 7.18E-08 ir: 1.44E-23 iu: 5.11E-08 rsn: rtol
 Step     36 Time=  1.90000E-01 Dt=  1.00000E-02 [d] snes_conv_reason:    3
  newton =   4 [     135] linear =     4 [       135] cuts =  0 [   0]
  --> max chng: dcmx=   2.0675E-08  dc/dt=   2.3930E-11 [mol/s]

== REACTIVE TRANSPORT ==========================================================
  0 2r: 3.45E-13 2x: 0.00E+00 2u: 0.00E+00 ir: 2.22E-13 iu: 0.00E+00 rsn:   0
  1 2r: 1.92E-14 2x: 9.27E+01 2u: 3.11E-01 ir: 1.72E-14 iu: 1.97E-01 rsn:   0
  2 2r: 2.07E-16 2x: 9.27E+01 2u: 3.27E-02 ir: 1.86E-16 iu: 2.20E-02 rsn:   0
  3 2r: 2.50E-20 2x: 9.27E+01 2u: 3.49E-04 ir: 2.25E-20 iu: 2.45E-04 rsn:   0
  4 2r: 1.60E-23 2x: 9.27E+01 2u: 4.19E-08 ir: 1.16E-23 iu: 2.99E-08 rsn: rtol
 Step     37 Time=  2.00000E-01 Dt=  1.00000E-02 [d] snes_conv_reason:    3
  newton =   4 [     139] linear =     4 [       139] cuts =  0 [   0]
  --> max chng: dcmx=   1.5345E-08  dc/dt=   1.7760E-11 [mol/s]

== REACTIVE TRANSPORT ==========================================================
  0 2r: 2.56E-13 2x: 0.00E+00 2u: 0.00E+00 ir: 1.65E-13 iu: 0.00E+00 rsn:   0
  1 2r: 1.32E-14 2x: 9.28E+01 2u: 2.83E-01 ir: 1.18E-14 iu: 1.82E-01 rsn:   0
  2 2r: 1.20E-16 2x: 9.28E+01 2u: 2.73E-02 ir: 1.08E-16 iu: 1.86E-02 rsn:   0
  3 2r: 1.03E-20 2x: 9.28E+01 2u: 2.47E-04 ir: 9.32E-21 iu: 1.74E-04 rsn:   0
  4 2r: 2.36E-23 2x: 9.28E+01 2u: 2.12E-08 ir: 1.99E-23 iu: 1.51E-08 rsn: rtol
 Step     38 Time=  2.10000E-01 Dt=  1.00000E-02 [d] snes_conv_reason:    3
  newton =   4 [     143] linear =     4 [       143] cuts =  0 [   0]
  --> max chng: dcmx=   1.1380E-08  dc/dt=   1.3172E-11 [mol/s]

== REACTIVE TRANSPORT ==========================================================
  0 2r: 1.90E-13 2x: 0.00E+00 2u: 0.00E+00 ir: 1.22E-13 iu: 0.00E+00 rsn:   0
  1 2r: 8.93E-15 2x: 9.29E+01 2u: 2.53E-01 ir: 7.98E-15 iu: 1.65E-01 rsn:   0
  2 2r: 6.59E-17 2x: 9.29E+01 2u: 2.19E-02 ir: 5.94E-17 iu: 1.51E-02 rsn:   0
  3 2r: 3.73E-21 2x: 9.29E+01 2u: 1.61E-04 ir: 3.35E-21 iu: 1.14E-04 rsn:   0
  4 2r: 1.72E-23 2x: 9.29E+01 2u: 9.11E-09 ir: 1.32E-23 iu: 6.53E-09 rsn: rtol
 Step     39 Time=  2.20000E-01 Dt=  1.00000E-02 [d] snes_conv_reason:    3
  newton =   4 [     147] linear =     4 [       147] cuts =  0 [   0]
  --> max chng: dcmx=   8.4354E-09  dc/dt=   9.7632E-12 [mol/s]

== REACTIVE TRANSPORT ==========================================================
  0 2r: 1.41E-13 2x: 0.00E+00 2u: 0.00E+00 ir: 9.06E-14 iu: 0.00E+00 rsn:   0
  1 2r: 5.90E-15 2x: 9.30E+01 2u: 2.22E-01 ir: 5.28E-15 iu: 1.46E-01 rsn:   0
  2 2r: 3.39E-17 2x: 9.30E+01 2u: 1.69E-02 ir: 3.05E-17 iu: 1.17E-02 rsn:   0
  3 2r: 1.15E-21 2x: 9.30E+01 2u: 9.69E-05 ir: 1.04E-21 iu: 6.89E-05 rsn: rtol
 Step     40 Time=  2.30000E-01 Dt=  1.00000E-02 [d] snes_conv_reason:    3
  newton =   3 [     150] linear =     3 [       150] cuts =  0 [   0]
  --> max chng: dcmx=   6.2499E-09  dc/dt=   7.2337E-12 [mol/s]

== REACTIVE TRANSPORT ==========================================================
  0 2r: 1.04E-13 2x: 0.00E+00 2u: 0.00E+00 ir: 6.71E-14 iu: 0.00E+00 rsn:   0
  1 2r: 3.81E-15 2x: 9.30E+01 2u: 1.91E-01 ir: 3.41E-15 iu: 1.27E-01 rsn:   0
  2 2r: 1.63E-17 2x: 9.30E+01 2u: 1.25E-02 ir: 1.47E-17 iu: 8.69E-03 rsn:   0
  3 2r: 3.02E-22 2x: 9.30E+01 2u: 5.32E-05 ir: 2.73E-22 iu: 3.79E-05 rsn: rtol
 Step     41 Time=  2.40000E-01 Dt=  1.00000E-02 [d] snes_conv_reason:    3
  newton =   3 [     153] linear =     3 [       153] cuts =  0 [   0]
  --> max chng: dcmx=   4.6293E-09  dc/dt=   5.3580E-12 [mol/s]

== REACTIVE TRANSPORT ==========================================================
  0 2r: 7.74E-14 2x: 0.00E+00 2u: 0.00E+00 ir: 4.97E-14 iu: 0.00E+00 rsn:   0
  1 2r: 2.40E-15 2x: 9.31E+01 2u: 1.60E-01 ir: 2.16E-15 iu: 1.07E-01 rsn:   0
  2 2r: 7.29E-18 2x: 9.31E+01 2u: 8.80E-03 ir: 6.57E-18 iu: 6.17E-03 rsn:   0
  3 2r: 7.37E-23 2x: 9.31E+01 2u: 2.67E-05 ir: 6.15E-23 iu: 1.91E-05 rsn: rtol
 Step     42 Time=  2.50000E-01 Dt=  1.00000E-02 [d] snes_conv_reason:    3
  newton =   3 [     156] linear =     3 [       156] cuts =  0 [   0]
  --> max chng: dcmx=   3.4281E-09  dc/dt=   3.9677E-12 [mol/s]

 Wall Clock Time:  1.3362E-01 [sec]   2.2270E-03 [min]   3.7117E-05 [hr]
